<?xml version="1.0" encoding="UTF-8"?>

<!-- generated on 2022-05-27 14:53:16 by Eclipse SUMO netedit Version 1.12.0
-->
<routes xmlns:xsi="http://www.w3.org/2001/XMLSchema-instance" xsi:noNamespaceSchemaLocation="http://sumo.dlr.de/xsd/routes_file.xsd">

		<flow id="0" from="1" to="-3" type="start-stop-vehicle" begin="0" end="1800" probability="0.03"/>
		<flow id="4" from="1" to="-2" type="intelligent_driver" begin="0" end="1800" probability="0.03"/>
		<flow id="5" from="1" to="-4" type="intelligent_driver" begin="0" end="1800" probability="0.03"/>
		<flow id="1" from="2" to="-4" type="intelligent_driver" begin="0" end="1800" probability="0.03"/>
		<flow id="7" from="2" to="-3" type="intelligent_driver" begin="0" end="1800" probability="0.03"/>
		<flow id="8" from="2" to="-1" type="intelligent_driver" begin="0" end="1800" probability="0.03"/>
		<flow id="2" from="3" to="-1" type="intelligent_driver" begin="0" end="1800" probability="0.03"/>
		<flow id="10" from="3" to="-2" type="intelligent_driver" begin="0" end="1800" probability="0.03"/>
		<flow id="11" from="3" to="-4" type="intelligent_driver" begin="0" end="1800" probability="0.03"/>
		<flow id="3" from="4" to="-2" type="intelligent_driver" begin="0" end="1800" probability="0.03"/>
		<flow id="13" from="4" to="-1" type="intelligent_driver" begin="0" end="1800" probability="0.03"/>
		<flow id="14" from="4" to="-3" type="intelligent_driver" begin="0" end="1800" probability="0.03"/>	
		
</routes>


